<?xml version="1.0" encoding="UTF-8"?>

<!-- generated on 2025-11-15T17:00:38.599885+00:00 by Eclipse SUMO netedit 1.25.0
<neteditConfiguration xmlns:xsi="http://www.w3.org/2001/XMLSchema-instance" xsi:noNamespaceSchemaLocation="http://sumo.dlr.de/xsd/neteditConfiguration.xsd">

    <input>
        <sumo-net-file value="/home/sarvesh/sumo_net/intersection.net.xml"/>
    </input>

    <output>
        <output-file value="/home/sarvesh/sumo_net/intersection.net.xml"/>
    </output>

    <processing>
        <geometry.min-radius.fix.railways value="false"/>
        <geometry.avoid-overlap value="false"/>
        <geometry.max-grade.fix value="false"/>
        <offset.disable-normalization value="true"/>
        <lefthand value="0"/>
    </processing>

    <junctions>
        <no-turnarounds value="true"/>
        <junctions.corner-detail value="5"/>
        <junctions.limit-turn-speed value="5.50"/>
        <rectangular-lane-cut value="0"/>
    </junctions>

    <pedestrian>
        <walkingareas value="0"/>
    </pedestrian>

</neteditConfiguration>
-->

<net version="1.20" junctionCornerDetail="5" limitTurnSpeed="5.50" avoidOverlap="0" xmlns:xsi="http://www.w3.org/2001/XMLSchema-instance" xsi:noNamespaceSchemaLocation="http://sumo.dlr.de/xsd/net_file.xsd">

    <location netOffset="0.00,0.00" convBoundary="-89.46,-44.53,-12.61,26.90" origBoundary="-10000000000.00,-10000000000.00,10000000000.00,10000000000.00" projParameter="!"/>

    <edge id=":J11_0" function="internal">
        <lane id=":J11_0_0" index="0" speed="6.47" length="9.03" shape="-41.82,-7.77 -44.28,-7.47 -46.04,-6.45 -47.11,-4.72 -47.48,-2.27"/>
    </edge>
    <edge id=":J11_1" function="internal">
        <lane id=":J11_1_0" index="0" speed="13.89" length="14.49" shape="-41.82,-7.77 -56.30,-8.14"/>
    </edge>
    <edge id=":J11_2" function="internal">
        <lane id=":J11_2_0" index="0" speed="8.03" length="4.11" shape="-41.82,-7.77 -45.67,-8.40 -45.84,-8.51"/>
    </edge>
    <edge id=":J11_12" function="internal">
        <lane id=":J11_12_0" index="0" speed="8.03" length="10.15" shape="-45.84,-8.51 -48.41,-10.12 -50.01,-12.92 -50.48,-16.79"/>
    </edge>
    <edge id=":J11_3" function="internal">
        <lane id=":J11_3_0" index="0" speed="6.54" length="9.11" shape="-47.28,-16.72 -46.98,-14.25 -45.96,-12.47 -44.21,-11.37 -41.74,-10.96"/>
    </edge>
    <edge id=":J11_4" function="internal">
        <lane id=":J11_4_0" index="0" speed="13.89" length="14.46" shape="-47.28,-16.72 -47.48,-2.27"/>
    </edge>
    <edge id=":J11_5" function="internal">
        <lane id=":J11_5_0" index="0" speed="7.99" length="4.02" shape="-47.28,-16.72 -47.91,-12.87 -47.98,-12.77"/>
    </edge>
    <edge id=":J11_13" function="internal">
        <lane id=":J11_13_0" index="0" speed="7.99" length="10.20" shape="-47.98,-12.77 -49.63,-10.16 -52.42,-8.58 -56.30,-8.14"/>
    </edge>
    <edge id=":J11_6" function="internal">
        <lane id=":J11_6_0" index="0" speed="6.49" length="9.03" shape="-56.21,-11.34 -53.75,-11.62 -51.97,-12.62 -50.88,-14.34 -50.48,-16.79"/>
    </edge>
    <edge id=":J11_7" function="internal">
        <lane id=":J11_7_0" index="0" speed="13.89" length="14.47" shape="-56.21,-11.34 -41.74,-10.96"/>
    </edge>
    <edge id=":J11_8" function="internal">
        <lane id=":J11_8_0" index="0" speed="8.09" length="4.05" shape="-56.21,-11.34 -52.37,-10.68 -52.23,-10.59"/>
    </edge>
    <edge id=":J11_14" function="internal">
        <lane id=":J11_14_0" index="0" speed="8.09" length="10.23" shape="-52.23,-10.59 -49.63,-8.94 -48.00,-6.14 -47.48,-2.27"/>
    </edge>
    <edge id=":J11_9" function="internal">
        <lane id=":J11_9_0" index="0" speed="6.62" length="9.21" shape="-50.68,-2.29 -51.01,-4.79 -52.06,-6.59 -53.83,-7.71 -56.30,-8.14"/>
    </edge>
    <edge id=":J11_10" function="internal">
        <lane id=":J11_10_0" index="0" speed="13.89" length="14.50" shape="-50.68,-2.29 -50.48,-16.79"/>
    </edge>
    <edge id=":J11_11" function="internal">
        <lane id=":J11_11_0" index="0" speed="7.97" length="4.13" shape="-50.68,-2.29 -50.10,-6.16 -49.98,-6.34"/>
    </edge>
    <edge id=":J11_15" function="internal">
        <lane id=":J11_15_0" index="0" speed="7.97" length="10.12" shape="-49.98,-6.34 -48.41,-8.90 -45.63,-10.50 -41.74,-10.96"/>
    </edge>

    <edge id="-E4" from="J11" to="J10" priority="-1">
        <lane id="-E4_0" index="0" speed="13.89" length="29.18" shape="-47.48,-2.27 -47.66,26.91"/>
    </edge>
    <edge id="-E5" from="J12" to="J11" priority="-1">
        <lane id="-E5_0" index="0" speed="13.89" length="27.78" shape="-46.72,-44.50 -47.28,-16.72"/>
    </edge>
    <edge id="-E6" from="J11" to="J13" priority="-1">
        <lane id="-E6_0" index="0" speed="13.89" length="33.22" shape="-56.30,-8.14 -89.51,-9.10"/>
    </edge>
    <edge id="-E7" from="J14" to="J11" priority="-1">
        <lane id="-E7_0" index="0" speed="13.89" length="29.18" shape="-12.65,-7.10 -41.82,-7.77"/>
    </edge>
    <edge id="E4" from="J10" to="J11" priority="-1">
        <lane id="E4_0" index="0" speed="13.89" length="29.18" shape="-50.86,26.89 -50.68,-2.29"/>
    </edge>
    <edge id="E5" from="J11" to="J12" priority="-1">
        <lane id="E5_0" index="0" speed="13.89" length="27.78" shape="-50.48,-16.79 -49.92,-44.56"/>
    </edge>
    <edge id="E6" from="J13" to="J11" priority="-1">
        <lane id="E6_0" index="0" speed="13.89" length="33.22" shape="-89.41,-12.30 -56.21,-11.34"/>
    </edge>
    <edge id="E7" from="J11" to="J14" priority="-1">
        <lane id="E7_0" index="0" speed="13.89" length="29.18" shape="-41.74,-10.96 -12.57,-10.30"/>
    </edge>

    <tlLogic id="J11" type="static" programID="0" offset="0">
        <phase duration="42" state="GGgrrrGGgrrr"/>
        <phase duration="3"  state="yyyrrryyyrrr"/>
        <phase duration="42" state="rrrGGgrrrGGg"/>
        <phase duration="3"  state="rrryyyrrryyy"/>
    </tlLogic>

    <junction id="J10" type="dead_end" x="-49.26" y="26.90" incLanes="-E4_0" intLanes="" shape="-49.26,26.90 -46.06,26.92 -49.26,26.90"/>
    <junction id="J11" type="traffic_light" x="-49.03" y="-9.53" incLanes="-E7_0 -E5_0 E6_0 E4_0" intLanes=":J11_0_0 :J11_1_0 :J11_12_0 :J11_3_0 :J11_4_0 :J11_13_0 :J11_6_0 :J11_7_0 :J11_14_0 :J11_9_0 :J11_10_0 :J11_15_0" shape="-41.85,-6.17 -41.71,-12.56 -43.95,-13.06 -44.73,-13.64 -45.28,-14.44 -45.60,-15.46 -45.68,-16.69 -52.08,-16.82 -52.57,-14.61 -53.14,-13.85 -53.93,-13.32 -54.94,-13.01 -56.16,-12.94 -56.35,-6.54 -54.07,-6.02 -53.28,-5.42 -52.72,-4.60 -52.38,-3.56 -52.28,-2.30 -45.88,-2.26 -45.42,-4.47 -44.86,-5.23 -44.08,-5.77 -43.07,-6.08">
        <request index="0"  response="000000000000" foes="000100010000" cont="0"/>
        <request index="1"  response="100000100000" foes="111100110000" cont="0"/>
        <request index="2"  response="100111100000" foes="110111110000" cont="1"/>
        <request index="3"  response="000010000000" foes="100010000000" cont="0"/>
        <request index="4"  response="000110000111" foes="100110000111" cont="0"/>
        <request index="5"  response="111110000110" foes="111110000110" cont="1"/>
        <request index="6"  response="000000000000" foes="010000000100" cont="0"/>
        <request index="7"  response="100000100000" foes="110000111100" cont="0"/>
        <request index="8"  response="100000100011" foes="110000110111" cont="1"/>
        <request index="9"  response="000000000010" foes="000000100010" cont="0"/>
        <request index="10" response="000111000110" foes="000111100110" cont="0"/>
        <request index="11" response="000110011110" foes="000110111110" cont="1"/>
    </junction>
    <junction id="J12" type="dead_end" x="-48.32" y="-44.53" incLanes="E5_0" intLanes="" shape="-48.32,-44.53 -51.52,-44.59 -48.32,-44.53"/>
    <junction id="J13" type="dead_end" x="-89.46" y="-10.70" incLanes="-E6_0" intLanes="" shape="-89.46,-10.70 -89.55,-7.50 -89.46,-10.70"/>
    <junction id="J14" type="dead_end" x="-12.61" y="-8.70" incLanes="E7_0" intLanes="" shape="-12.61,-8.70 -12.54,-11.90 -12.61,-8.70"/>

    <junction id=":J11_12_0" type="internal" x="-45.84" y="-8.51" incLanes=":J11_2_0 E6_0" intLanes=":J11_4_0 :J11_5_0 :J11_6_0 :J11_7_0 :J11_10_0 :J11_11_0"/>
    <junction id=":J11_13_0" type="internal" x="-47.98" y="-12.77" incLanes=":J11_5_0 E4_0" intLanes=":J11_1_0 :J11_2_0 :J11_7_0 :J11_8_0 :J11_9_0 :J11_10_0"/>
    <junction id=":J11_14_0" type="internal" x="-52.23" y="-10.59" incLanes=":J11_8_0 -E7_0" intLanes=":J11_0_0 :J11_1_0 :J11_4_0 :J11_5_0 :J11_10_0 :J11_11_0"/>
    <junction id=":J11_15_0" type="internal" x="-49.98" y="-6.34" incLanes=":J11_11_0 -E5_0" intLanes=":J11_1_0 :J11_2_0 :J11_3_0 :J11_4_0 :J11_7_0 :J11_8_0"/>

    <connection from="-E5" to="E7" fromLane="0" toLane="0" via=":J11_3_0" tl="J11" linkIndex="3" dir="r" state="o"/>
    <connection from="-E5" to="-E4" fromLane="0" toLane="0" via=":J11_4_0" tl="J11" linkIndex="4" dir="s" state="o"/>
    <connection from="-E5" to="-E6" fromLane="0" toLane="0" via=":J11_5_0" tl="J11" linkIndex="5" dir="l" state="o"/>
    <connection from="-E7" to="-E4" fromLane="0" toLane="0" via=":J11_0_0" tl="J11" linkIndex="0" dir="r" state="O"/>
    <connection from="-E7" to="-E6" fromLane="0" toLane="0" via=":J11_1_0" tl="J11" linkIndex="1" dir="s" state="O"/>
    <connection from="-E7" to="E5" fromLane="0" toLane="0" via=":J11_2_0" tl="J11" linkIndex="2" dir="l" state="o"/>
    <connection from="E4" to="-E6" fromLane="0" toLane="0" via=":J11_9_0" tl="J11" linkIndex="9" dir="r" state="o"/>
    <connection from="E4" to="E5" fromLane="0" toLane="0" via=":J11_10_0" tl="J11" linkIndex="10" dir="s" state="o"/>
    <connection from="E4" to="E7" fromLane="0" toLane="0" via=":J11_11_0" tl="J11" linkIndex="11" dir="l" state="o"/>
    <connection from="E6" to="E5" fromLane="0" toLane="0" via=":J11_6_0" tl="J11" linkIndex="6" dir="r" state="O"/>
    <connection from="E6" to="E7" fromLane="0" toLane="0" via=":J11_7_0" tl="J11" linkIndex="7" dir="s" state="O"/>
    <connection from="E6" to="-E4" fromLane="0" toLane="0" via=":J11_8_0" tl="J11" linkIndex="8" dir="l" state="o"/>

    <connection from=":J11_0" to="-E4" fromLane="0" toLane="0" dir="r" state="M"/>
    <connection from=":J11_1" to="-E6" fromLane="0" toLane="0" dir="s" state="M"/>
    <connection from=":J11_2" to="E5" fromLane="0" toLane="0" via=":J11_12_0" dir="l" state="m"/>
    <connection from=":J11_12" to="E5" fromLane="0" toLane="0" dir="l" state="M"/>
    <connection from=":J11_3" to="E7" fromLane="0" toLane="0" dir="r" state="M"/>
    <connection from=":J11_4" to="-E4" fromLane="0" toLane="0" dir="s" state="M"/>
    <connection from=":J11_5" to="-E6" fromLane="0" toLane="0" via=":J11_13_0" dir="l" state="m"/>
    <connection from=":J11_13" to="-E6" fromLane="0" toLane="0" dir="l" state="M"/>
    <connection from=":J11_6" to="E5" fromLane="0" toLane="0" dir="r" state="M"/>
    <connection from=":J11_7" to="E7" fromLane="0" toLane="0" dir="s" state="M"/>
    <connection from=":J11_8" to="-E4" fromLane="0" toLane="0" via=":J11_14_0" dir="l" state="m"/>
    <connection from=":J11_14" to="-E4" fromLane="0" toLane="0" dir="l" state="M"/>
    <connection from=":J11_9" to="-E6" fromLane="0" toLane="0" dir="r" state="M"/>
    <connection from=":J11_10" to="E5" fromLane="0" toLane="0" dir="s" state="M"/>
    <connection from=":J11_11" to="E7" fromLane="0" toLane="0" via=":J11_15_0" dir="l" state="m"/>
    <connection from=":J11_15" to="E7" fromLane="0" toLane="0" dir="l" state="M"/>

</net>
